12
glucose from 2gbp
C     38.553     30.400     50.259
C     38.357     31.290     49.044
C     39.559     31.209     48.082
C     35.884     30.895     49.120
C     36.177     29.853     50.124
C     37.296     30.296     51.074
O     34.968     30.340     48.234
O     34.923     29.775     50.910
O     39.572     30.954     51.086
O     37.441     29.265     52.113
O     39.261     32.018     46.920
O     37.155     30.858     48.364